*HEADING
cubit(as/Dropbox/research-uday-csi/DUC/Inverse Solver/cyl_2.inp): 12/20/2015: 06
version: 13.0
**
********************************** P A R T S **********************************
*PART, NAME=Part-Default
**
********************************** N O D E S **********************************
*NODE, NSET=ALLNODES
       1,    2.500000e-01,    0.000000e+00,    5.000000e-01
       2,    2.448825e-01,    5.032463e-02,    5.000000e-01
       3,    2.297395e-01,    9.858896e-02,    5.000000e-01
       4,    2.051909e-01,    1.428171e-01,    5.000000e-01
       5,    1.722417e-01,    1.811982e-01,    5.000000e-01
       6,    1.322410e-01,    2.121611e-01,    5.000000e-01
       7,    8.682631e-02,    2.344380e-01,    5.000000e-01
       8,    3.785694e-02,    2.471171e-01,    5.000000e-01
       9,   -1.266229e-02,    2.496791e-01,    5.000000e-01
      10,   -6.266313e-02,    2.420193e-01,    5.000000e-01
      11,   -1.100985e-01,    2.244511e-01,    5.000000e-01
      12,   -1.530265e-01,    1.976939e-01,    5.000000e-01
      13,   -1.896895e-01,    1.628431e-01,    5.000000e-01
      14,   -2.185867e-01,    1.213255e-01,    5.000000e-01
      15,   -2.385348e-01,    7.484078e-02,    5.000000e-01
      16,   -2.487173e-01,    2.529208e-02,    5.000000e-01
      17,   -2.487173e-01,   -2.529208e-02,    5.000000e-01
      18,   -2.385348e-01,   -7.484078e-02,    5.000000e-01
      19,   -2.185867e-01,   -1.213255e-01,    5.000000e-01
      20,   -1.896895e-01,   -1.628431e-01,    5.000000e-01
** ... 6871 like lines cut
**
********************************** E L E M E N T S ****************************
*ELEMENT, TYPE=STRI3, ELSET=EB1
       1,      61,      76,      60
       2,       2,       3,      32
       3,       4,       5,      35
       4,       7,       8,      37
       5,      95,      91,      92
       6,      13,      14,      42
       7,      18,      19,      46
       8,      65,      78,      64
       9,      24,      25,      51
      10,      61,      60,      37
      11,      34,      35,      58
      12,      60,      59,      36
      13,      57,      32,      58
      14,      68,      80,      67
      15,      58,      35,      59
      16,      62,      76,      61
      17,      63,      41,      64
      18,      90,      79,      91
      19,      65,      44,      66
      20,      19,      20,      47
** ... 13509 like lines cut
**
********************************** S I D E S E T S **********************************
*ELSET, ELSET=RBC_E1
   11858,   11876,   11888,   11922,   11935,   12017,   12037,   12064,   12076,   12107,
   12112,   12146,   12168,   12191,   12210,   12232,   12234,   12254,   12256,   12367,
   12408,   12410,   12518,   12541,   12562,   12573,   12575,   12577,   12579,   12580,
   12590,   12600,   12603,   12604,   12614,   12617,   12619,   12621,   12623,   12625,
   12627,   12628,   12635,   12637,   12650,   12654,   12659,   12661,   12666,   12674,
   12680,   12683,   12685,   12687,   12689,   12691,   12693,   12698,   12710,   12713,
   12722,   12731,   12734,   12737,   12739,   12741,   12743,   12745,   12747,   12758,
   12761,   12763,   12765,   12770,   12782,   12792,   12795,   12804,   12807,   12809,
   12811,   12813,   12815,   12824,   12827,   12832,   12835,   12837,   12846,   12851,
   12856,   12859,   12861,   12863,   12865,   12867,   12876,   12879,   12881,   12883,
   12885,   12887,   12889,   12891,   12900,   12903,   12905,   12907,   12909,   12911,
   12920,   12924,   12927,   12929,   12932,   12935,   12937,   12938,   12956,   12959,
   12961,   12970,   12980,   12983,   12985,   12986,   12996,   12999,   13001,   13003,
   13005,   13007,   13009,   13010,   13017,   13019,   13028,   13032,   13036,   13041,
   13043,   13045,   13047,   13049,   13051,   13053,   13055,   13057,   13058,   13065,
   13067
*ELSET, ELSET=RBC_E3
   11685,   11740,   11863,   12005,   12110,   12188,   12298,   12452,   12496,   12538,
   12584,   12586,   12588,   12593,   12594,   12596,   12598,   12611,   12612,   12639,
   12640,   12642,   12644,   12646,   12648,   12663,   12664,   12669,   12670,   12672,
   12695,   12696,   12707,   12708,   12715,   12716,   12718,   12720,   12733,   12748,
   12750,   12752,   12754,   12756,   12767,   12768,   12774,   12776,   12778,   12780,
   12785,   12786,   12788,   12790,   12798,   12800,   12802,   12817,   12818,   12820,
   12822,   12829,   12830,   12839,   12840,   12842,   12844,   12853,   12854,   12870,
   12872,   12874,   12899,   12913,   12914,   12916,   12918,   12923,   12931,   12944,
   12946,   12948,   12950,   12952,   12954,   12962,   12964,   12966,   12968,   12973,
   12974,   12976,   12978,   12992,   12994,   13021,   13022,   13024,   13026,   13031
*SURFACE, NAME=RBC
RBC_E1, E1
RBC_E3, E3
*ELSET, ELSET=OUT_E1
    6944,    7032,    7070,    7086,    7108,    7124,    7320,    7324,    7326,    7327,
    7331,    7338,    7341,    7344,    7347,    7350,    7353,    7356,    7357,    7364,
    7365,    7369,    7372,    7375,    7378,    7379,    7386,    7387,    7391,    7394,
    7397,    7400,    7401,    7405,    7408,    7409,    7413,    7416,    7417,    7421,
    7424,    7427,    7430,    7431,    7438,    7439,    7443,    7446,    7449,    7452,
    7453,    7460,    7461,    7465,    7468,    7469,    7478,    7480,    7481,    7483,
    7490,    7491,    7495,    7498,    7501,    7504,    7505,    7512,    7513,    7517,
    7520,    7523,    7526,    7527,    7536,    7538,    7544,    7546,    7552,    7558,
    7560,    7566,    7568,    7574,    7582,    7588,    7590,    7596,    7598,    7604,
    7610,    7612,    7618,    7620,    7626,    7634,    7640,    7642,    7648,    7650,
    7656,    7662,    7664,    7670,    7672,    7678,    7684,    7686,    7692,    7700,
    7702,    7703,    7705,    7714,    7716,    7717,    7719,    7730,    7732,    7733,
    7742,    7744,    7745,    7754,    7756,    7757,    7759,    7772,   11628,   11629,
   11633,   11635,   11637,   11645,   11646,   11647,   11666,   11667,   11668,   11669,
   11670,   11671,   11678,   11679,   11693,   11694,   11701,   11702,   11703,   11704,
   11724,   11725,   11726,   11733,   11735,   11737,   11738,   11747,   11748,   11756,
   11760,   11766,   11794,   11804,   11805,   11808,   11811,   11812,   11813,   11822,
   11823,   11824,   11844,   11845,   11846,   11847,   11854,   11855,   11861,   11901,
   11907,   11908,   11911,   11912,   11913,   11914,   11915,   11916,   11975,   11976,
   11977,   12036,   12038,   12040,   12089,   12090,   12092,   12095,   12096,   12098,
** ... 5 like lines cut
*ELSET, ELSET=OUT_E2
    6923,   11686,   11787,   11799,   11852,   11864,   11877,   11878,   11879,   11889,
   11890,   11891,   11892,   11893,   11902,   11903,   11904,   11923,   11924,   11925,
   11936,   11937,   11938,   11939,   11972,   11984,   11985,   11996,   11997,   11998,
   12006,   12018,   12019,   12020,   12057,   12065,   12066,   12077,   12078,   12079,
   12080,   12081,   12123,   12126,   12135,   12143,   12145,   12152,   12157,   12159,
   12161,   12163,   12165,   12167,   12205,   12229,   12240,   12245,   12247,   12264,
   12267,   12269,   12271,   12273,   12275,   12277,   12278,   12289,   12291,   12293,
   12319,   12321,   12355,   12357,   12359,   12361,   12377,   12379,   12381,   12383,
   12385,   12388,   12397,   12399,   12401,   12403,   12405,   12407,   12419,   12421,
   12423,   12425,   12427,   12438,   12441,   12443,   12445,   12469,   12471,   12473,
   12474,   12491,   12493,   12495,   12500,   12507,   12509,   12511,   12513,   12515,
   12517,   12537
*ELSET, ELSET=OUT_E3
    6924,    6925,    7023,    7329,    7334,    7335,    7340,    7345,    7351,    7359,
    7367,    7373,    7381,    7389,    7395,    7403,    7411,    7419,    7425,    7433,
    7441,    7447,    7455,    7463,    7471,    7473,    7476,    7485,    7493,    7499,
    7507,    7515,    7521,    7529,    7531,    7534,    7539,    7541,    7547,    7549,
    7554,    7555,    7561,    7563,    7569,    7571,    7576,    7577,    7580,    7584,
    7585,    7591,    7593,    7599,    7601,    7606,    7607,    7613,    7615,    7621,
    7623,    7628,    7629,    7632,    7636,    7637,    7643,    7645,    7651,    7653,
    7658,    7659,    7665,    7667,    7673,    7675,    7680,    7681,    7687,    7689,
    7694,    7695,    7698,    7707,    7709,    7712,    7721,    7723,    7726,    7728,
    7735,    7737,    7739,    7747,    7749,    7752,    7761,    7763,    7766,    7768,
    7778,   12109
*SURFACE, NAME=OUT
OUT_E1, E1
OUT_E2, E2
OUT_E3, E3
*ELSET, ELSET=TOP_E1
     162,     163,     164,     166,     190,     196,     232,     362,     413,     415,
     419,     421,     424,     427,     429,     432,     433,     435,     437,     439,
     441,     460,     462,     464,     465,     467,     469,     471,     477,     482,
     486,     487,     498,     500,     502,     503,     514,     524,     526,     528,
     529,     531,     533,     535,     537,     548,     550,     553,     555,     558,
     563,     574,     578,     582,     583,     586,     587,     591,     593,     597,
     599,     602,     614,     618,     619,     622,     623,     625,     627,     629,
     631,     633,     641,     644,     646,     647,     649,     651,     660,     670,
     672,     674,     675,     681,     692,     694,     696,     699,     710,     712,
     714,     715,     723,     736,     743,    6997,    7000,    7002,    7010,    7013,
    7015,    7021,    7027,    7037,    7053,    7069,    7085,    7091,    7107,    7123,
    7145,    7162,    7184,    7190,    7200,    7206,    7222,    7228,    7238,    7244,
    7254,    7260,    7276,    7316,    7321
*ELSET, ELSET=TOP_E2
     358,    6930,    6940,    6998,    6999,    7001,    7003,    7004,    7005,    7006,
    7008,    7011,    7012,    7014,    7016,    7017,    7018,    7019,    7026,    7031,
    7033,    7039,    7041,    7042,    7043,    7045,    7047,    7048,    7049,    7055,
    7059,    7061,    7063,    7064,    7065,    7071,    7075,    7077,    7079,    7080,
    7081,    7087,    7093,    7095,    7097,    7099,    7101,    7103,    7109,    7113,
    7115,    7118,    7119,    7120,    7125,    7129,    7131,    7133,    7135,    7137,
    7139,    7140,    7141,    7146,    7147,    7151,    7153,    7155,    7157,    7163,
    7164,    7168,    7170,    7172,    7174,    7176,    7178,    7180,    7185,    7186,
    7192,    7194,    7196,    7201,    7202,    7208,    7210,    7212,    7214,    7216,
    7218,    7224,    7230,    7232,    7234,    7239,    7240,    7246,    7248,    7250,
    7255,    7256,    7262,    7264,    7266,    7268,    7270,    7271,    7272,    7277,
    7278,    7280,    7289,    7292,    7293,    7296,    7299,    7308,    7309,    7312,
    7315,    7362,    7384,    7436,    7458,    7479,    7488,    7510,    7553,    7583,
    7605,    7627,    7635,    7657,    7679,    7731,    7769,    7771
*ELSET, ELSET=TOP_E3
     197,     418,     425,     443,     445,     447,     450,     452,     454,     456,
     458,     473,     475,     480,     483,     490,     491,     493,     496,     507,
     509,     511,     516,     518,     519,     522,     539,     541,     543,     546,
     552,     559,     561,     566,     568,     569,     572,     576,     579,     589,
     596,     603,     605,     607,     610,     612,     616,     637,     639,     653,
     655,     657,     662,     664,     665,     668,     677,     679,     684,     686,
     687,     690,     697,     701,     704,     705,     708,     717,     719,     727,
     732,     739,    7319
*SURFACE, NAME=TOP
TOP_E1, E1
TOP_E2, E2
TOP_E3, E3
*ELSET, ELSET=DIE_E1
       2,       3,       4,       6,       7,       9,      20,      26,      29,      31,
      34,      36,      38,      40,      45,      46,      48,      53,      55,      58,
      60,      63,      65,      66,      68,      72,     200,     250,     276,     306,
     359
*ELSET, ELSET=DIE_E2
      78,     161,     171,     186,     189,     210,     213,     225,     231,     237,
     243,     246,     256,     262,     268,     273,     279,     293,     310,     314,
     321,     326,     332,     340,     341,     343
*ELSET, ELSET=DIE_E3
      43,      51,      57,      74,     355
*SURFACE, NAME=DIE
DIE_E1, E1
DIE_E2, E2
DIE_E3, E3
*ELSET, ELSET=AAB_SPOS
     160,     161,     162,     163,     164,     165,     166,     167,     168,     169,
     170,     171,     172,     173,     174,     175,     176,     177,     178,     179,
     180,     181,     182,     183,     184,     185,     186,     187,     188,     189,
     190,     191,     192,     193,     194,     195,     196,     197,     198,     199,
     200,     201,     202,     203,     204,     205,     206,     207,     208,     209,
     210,     211,     212,     213,     214,     215,     216,     217,     218,     219,
     220,     221,     222,     223,     224,     225,     226,     227,     228,     229,
     230,     231,     232,     233,     234,     235,     236,     237,     238,     239,
     240,     241,     242,     243,     244,     245,     246,     247,     248,     249,
     250,     251,     252,     253,     254,     255,     256,     257,     258,     259,
     260,     261,     262,     263,     264,     265,     266,     267,     268,     269,
     270,     271,     272,     273,     274,     275,     276,     277,     278,     279,
     280,     281,     282,     283,     284,     285,     286,     287,     288,     289,
     290,     291,     292,     293,     294,     295,     296,     297,     298,     299,
     300,     301,     302,     303,     304,     305,     306,     307,     308,     309,
     310,     311,     312,     313,     314,     315,     316,     317,     318,     319,
     320,     321,     322,     323,     324,     325,     326,     327,     328,     329,
     330,     331,     332,     333,     334,     335,     336,     337,     338,     339,
     340,     341,     342,     343,     344,     345,     346,     347,     348,     349,
     350,     351,     352,     353,     354,     355,     356,     357,     358,     359,
** ... 657 like lines cut
*SURFACE, NAME=AAB
AAB_SPOS, SPOS
*ELSET, ELSET=T01_SPOS
       1,       2,       3,       4,       5,       6,       7,       8,       9,      10,
      11,      12,      13,      14,      15,      16,      17,      18,      19,      20,
      21,      22,      23,      24,      25,      26,      27,      28,      29,      30,
      31,      32,      33,      34,      35,      36,      37,      38,      39,      40,
      41,      42,      43,      44,      45,      46,      47,      48,      49,      50,
      51,      52,      53,      54,      55,      56,      57,      58,      59,      60,
      61,      62,      63,      64,      65,      66,      67,      68,      69,      70,
      71,      72,      73,      74,      75,      76,      77,      78,      79,      80,
      81,      82,      83,      84,      85,      86,      87,      88,      89,      90,
      91,      92,      93,      94,      95,      96,      97,      98,      99,     100,
     101,     102,     103,     104,     105,     106,     107,     108,     109,     110,
     111,     112,     113,     114,     115,     116,     117,     118,     119,     120,
     121,     122,     123,     124,     125,     126,     127,     128,     129,     130,
     131,     132,     133,     134,     135,     136,     137,     138,     139,     140,
     141,     142,     143,     144,     145,     146,     147,     148,     149,     150,
     151,     152,     153,     154,     155,     156,     157,     158,     159
*SURFACE, NAME=T01
T01_SPOS, SPOS
**
********************************** P R O P E R T I E S ************************
*SHELL SECTION, ELSET=EB1, SECTION INTEGRATION=SIMPSON, MATERIAL=Default-Steel
1.000000e+00
**
*END PART
**
**
**
********************************** E N D   P A R T S **********************************
**
**
********************************** A S S E M B L Y ************************************
**
*ASSEMBLY, NAME=ASSEMBLY1
**
*INSTANCE, NAME=Part-Default_1, PART=Part-Default
*END INSTANCE
**
*END ASSEMBLY
**
**
**
*MATERIAL, NAME = Default-Steel
*ELASTIC, TYPE=ISOTROPIC
2.068000e+05, 2.900000e-01
*DENSITY
7.000000e-06
*CONDUCTIVITY,TYPE=ISO
4.500000e-02
*SPECIFIC HEAT
5.000000e+02
**
**
************************************** H I S T O R Y *************************************
**
*PREPRINT
**
**************************************** S T E P 1 ***************************************
*STEP,INC=100,NAME=Default Set
**
*STATIC
1, 1, 1e-05, 1
**
**
**
**
*END STEP
