*HEADING
cubit(ra1/Dropbox/research-uday-csi/Inverse Solver/square_2.inp): 06/16/2015: 12
version: 13.0
**
********************************** P A R T S **********************************
*PART, NAME=Part-Default
**
********************************** N O D E S **********************************
*NODE, NSET=ALLNODES
       1,   -1.000000e+00,   -1.000000e+00,    5.000000e-01
       2,    1.000000e+00,   -1.000000e+00,    5.000000e-01
       3,   -9.500000e-01,   -1.000000e+00,    5.000000e-01
       4,   -9.000000e-01,   -1.000000e+00,    5.000000e-01
       5,   -8.500000e-01,   -1.000000e+00,    5.000000e-01
       6,   -8.000000e-01,   -1.000000e+00,    5.000000e-01
       7,   -7.500000e-01,   -1.000000e+00,    5.000000e-01
       8,   -7.000000e-01,   -1.000000e+00,    5.000000e-01
       9,   -6.500000e-01,   -1.000000e+00,    5.000000e-01
      10,   -6.000000e-01,   -1.000000e+00,    5.000000e-01
      11,   -5.500000e-01,   -1.000000e+00,    5.000000e-01
      12,   -5.000000e-01,   -1.000000e+00,    5.000000e-01
      13,   -4.500000e-01,   -1.000000e+00,    5.000000e-01
      14,   -4.000000e-01,   -1.000000e+00,    5.000000e-01
      15,   -3.500000e-01,   -1.000000e+00,    5.000000e-01
      16,   -3.000000e-01,   -1.000000e+00,    5.000000e-01
      17,   -2.500000e-01,   -1.000000e+00,    5.000000e-01
      18,   -2.000000e-01,   -1.000000e+00,    5.000000e-01
      19,   -1.500000e-01,   -1.000000e+00,    5.000000e-01
      20,   -1.000000e-01,   -1.000000e+00,    5.000000e-01
** ... 30276 like lines cut
**
********************************** E L E M E N T S ****************************
*ELEMENT, TYPE=STRI3, ELSET=EB1
       1,      83,     315,      42
       2,     374,     516,     373
       3,     124,     276,     123
       4,     424,     273,     425
       5,     127,     279,     126
       6,     128,     280,     127
       7,     271,     272,     423
       8,    1175,    1272,    1174
       9,     131,     132,     284
      10,     286,     435,     285
      11,     135,     287,     134
      12,     136,     137,     289
      13,     286,     285,     133
      14,     554,     688,     553
      15,     838,     837,     712
      16,     687,     814,     686
      17,     102,     103,     256
      18,     226,     227,     380
      19,     688,     815,     687
      20,    1051,    1157,    1050
** ... 60319 like lines cut
**
********************************** S I D E S E T S **********************************
*ELSET, ELSET=RBC_E1
   58668,   58686,   58698,   58732,   58745,   58827,   58847,   58874,   58886,   58917,
   58922,   58956,   58978,   59001,   59020,   59042,   59044,   59064,   59066,   59177,
   59218,   59220,   59328,   59351,   59372,   59383,   59385,   59387,   59389,   59390,
   59400,   59410,   59413,   59414,   59424,   59427,   59429,   59431,   59433,   59435,
   59437,   59438,   59445,   59447,   59460,   59464,   59469,   59471,   59476,   59484,
   59490,   59493,   59495,   59497,   59499,   59501,   59503,   59508,   59520,   59523,
   59532,   59541,   59544,   59547,   59549,   59551,   59553,   59555,   59557,   59568,
   59571,   59573,   59575,   59580,   59592,   59602,   59605,   59614,   59617,   59619,
   59621,   59623,   59625,   59634,   59637,   59642,   59645,   59647,   59656,   59661,
   59666,   59669,   59671,   59673,   59675,   59677,   59686,   59689,   59691,   59693,
   59695,   59697,   59699,   59701,   59710,   59713,   59715,   59717,   59719,   59721,
   59730,   59734,   59737,   59739,   59742,   59745,   59747,   59748,   59766,   59769,
   59771,   59780,   59790,   59793,   59795,   59796,   59806,   59809,   59811,   59813,
   59815,   59817,   59819,   59820,   59827,   59829,   59838,   59842,   59846,   59851,
   59853,   59855,   59857,   59859,   59861,   59863,   59865,   59867,   59868,   59875,
   59877
*ELSET, ELSET=RBC_E3
   58495,   58550,   58673,   58815,   58920,   58998,   59108,   59262,   59306,   59348,
   59394,   59396,   59398,   59403,   59404,   59406,   59408,   59421,   59422,   59449,
   59450,   59452,   59454,   59456,   59458,   59473,   59474,   59479,   59480,   59482,
   59505,   59506,   59517,   59518,   59525,   59526,   59528,   59530,   59543,   59558,
   59560,   59562,   59564,   59566,   59577,   59578,   59584,   59586,   59588,   59590,
   59595,   59596,   59598,   59600,   59608,   59610,   59612,   59627,   59628,   59630,
   59632,   59639,   59640,   59649,   59650,   59652,   59654,   59663,   59664,   59680,
   59682,   59684,   59709,   59723,   59724,   59726,   59728,   59733,   59741,   59754,
   59756,   59758,   59760,   59762,   59764,   59772,   59774,   59776,   59778,   59783,
   59784,   59786,   59788,   59802,   59804,   59831,   59832,   59834,   59836,   59841
*SURFACE, NAME=RBC
RBC_E1, E1
RBC_E3, E3
*ELSET, ELSET=OUT_E1
   44834,   44836,   44838,   44839,   44840,   44841,   44842,   44843,   44844,   44845,
   44846,   44848,   44849,   44850,   44851,   44852,   44853,   44854,   44855,   44856,
   44857,   44859,   44860,   44861,   44891,   44894,   44896,   44900,   44902,   44907,
   44909,   44913,   44915,   44920,   44922,   44928,   44932,   44934,   44939,   44941,
   44945,   44951,   44953,   44958,   44960,   44964,   44966,   44971,   44973,   44977,
   44979,   44983,   44985,   44990,   44992,   44996,   44998,   45002,   45004,   45009,
   45011,   45015,   45017,   45022,   45024,   45030,   45034,   45036,   45041,   45043,
   45047,   45049,   45053,   45055,   45060,   45062,   45066,   45068,   45073,   45075,
   45081,   45085,   45087,   45092,   45094,   45098,   45100,   45104,   45106,   45111,
   45113,   45117,   45124,   45126,   45130,   45132,   45136,   45138,   45143,   45145,
   45149,   45151,   45155,   45157,   45162,   45164,   45168,   45175,   45177,   45183,
   45187,   45189,   45194,   45196,   45200,   45202,   45206,   45208,   45213,   45215,
   45219,   45221,   45225,   45227,   45234,   45238,   45240,   45245,   45247,   45251,
   45253,   45257,   45259,   45264,   45266,   45270,   45276,   45278,   45283,   45285,
   45289,   45291,   45296,   45298,   45302,   45304,   45308,   45310,   45315,   45317,
   45321,   45327,   45329,   45336,   45340,   45342,   45347,   45349,   45353,   45355,
   45359,   45361,   45366,   45368,   45372,   45374,   45378,   45380,   45387,   45391,
   45393,   45400,   45404,   45410,   45412,   45423,   45431,   45436,   45442,   45446,
   45460,   45465,   45469,   45482,   45504,   45508,   45526,   45548,   45567,   45571,
   45599,   45629,   45671,   45685,   45757,   45799,   45829,   45871,   45885,   45927,
** ... 15 like lines cut
*ELSET, ELSET=OUT_E2
   46176,   58496,   58597,   58609,   58662,   58674,   58687,   58688,   58689,   58699,
   58700,   58701,   58702,   58703,   58712,   58713,   58714,   58733,   58734,   58735,
   58746,   58747,   58748,   58749,   58782,   58794,   58795,   58806,   58807,   58808,
   58816,   58828,   58829,   58830,   58867,   58875,   58876,   58887,   58888,   58889,
   58890,   58891,   58933,   58936,   58945,   58953,   58955,   58962,   58967,   58969,
   58971,   58973,   58975,   58977,   59015,   59039,   59050,   59055,   59057,   59074,
   59077,   59079,   59081,   59083,   59085,   59087,   59088,   59099,   59101,   59103,
   59129,   59131,   59165,   59167,   59169,   59171,   59187,   59189,   59191,   59193,
   59195,   59198,   59207,   59209,   59211,   59213,   59215,   59217,   59229,   59231,
   59233,   59235,   59237,   59248,   59251,   59253,   59255,   59279,   59281,   59283,
   59284,   59301,   59303,   59305,   59310,   59317,   59319,   59321,   59323,   59325,
   59327,   59347
*ELSET, ELSET=OUT_E3
   45530,   45552,   45568,   58919
*SURFACE, NAME=OUT
OUT_E1, E1
OUT_E2, E2
OUT_E3, E3
*ELSET, ELSET=TOP_E1
    3830,    3842,    3845,    3852,    3855,    3860,    3868,    3975,    3980,    3993,
    3995,    4097,    4102,    4107,    4120,    4174,    4218,    4226,    4231,    4332,
    4340,    4366,    4440,    4470,    4518,    4554,    4644,    4712,    4721,    4722,
    4724,    4726,    4729,    4731,    4733,    4735,    4737,    4739,    4741,    4743,
    4747,    4749,    4751,    4755,    4757,    4760,    4763,    4765,    4769,    4771,
    4774,    4777,    4779,    4787,    4795,    4796,    4800,    4803,    4805,    4806,
    4809,    4811,    4813,    4815,    4817,    4819,    4821,    4823,    4825,    4827,
    4829,    4831,    4833,    4835,    4837,    4839,    4841,    4843,    4845,    4849,
    4854,    4860,    4866,    4870,    4872,    4876,    4882,    4888,    4894,    4898,
    4903,    4907,    4912,    4964,    4973,    4974,    4976,    4978,    4981,    4983,
    4985,    4987,    4989,    4991,    4993,    4999,    5002,    5007,    5008,    5011,
    5015,    5017,    5020,    5023,    5025,    5029,    5031,    5033,    5039,    5048,
    5050,    5052,    5054,    5057,    5059,    5061,    5063,    5065,    5067,    5069,
    5071,    5073,    5075,    5077,    5079,    5081,    5083,    5085,    5087,    5089,
    5091,    5093,    5095,    5097,    5101,    5106,    5112,    5115,    5118,    5124,
    5130,    5136,    5140,    5146,    5152,    5155,    5156,    5158,    5200,    5216,
    5225,    5226,    5228,    5231,    5233,    5235,    5237,    5239,    5241,    5243,
    5245,    5251,    5254,    5256,    5260,    5263,    5266,    5269,    5271,    5275,
    5277,    5279,    5283,    5285,    5293,    5301,    5302,    5304,    5306,    5309,
    5311,    5313,    5315,    5317,    5319,    5321,    5323,    5325,    5327,    5329,
** ... 32 like lines cut
*ELSET, ELSET=TOP_E2
   44847,   44866,   44868,   44869,   44872,   44879,   44881,   44882,   44885,   44887,
   44892,   44897,   44901,   44908,   44911,   44912,   44916,   44918,   44923,   44929,
   44935,   44938,   44946,   44949,   44950,   44954,   44956,   44957,   44970,   44975,
   44986,   44995,   44999,   45001,   45013,   45014,   45016,   45018,   45023,   45025,
   45027,   45032,   45035,   45037,   45054,   45064,   45065,   45069,   45071,   45072,
   45076,   45082,   45088,   45090,   45091,   45099,   45103,   45107,   45109,   45110,
   45123,   45128,   45133,   45139,   45140,   45148,   45152,   45154,   45166,   45167,
   45169,   45170,   45171,   45176,   45178,   45180,   45185,   45188,   45192,   45207,
   45217,   45218,   45222,   45224,   45226,   45229,   45235,   45241,   45243,   45244,
   45252,   45256,   45262,   45263,   45277,   45281,   45286,   45292,   45293,   45301,
   45305,   45307,   45319,   45320,   45322,   45323,   45324,   45330,   45331,   45333,
   45338,   45345,   45360,   45370,   45371,   45375,   45377,   45379,   45382,   45388,
   45394,   45396,   45397,   45405,   45409,   45415,   45416,   45429,   45432,   45434,
   45439,   45445,   45451,   45453,   45455,   45457,   45463,   45464,   45466,   45468,
   45470,   45471,   45479,   45487,   45489,   45495,   45496,   45497,   45499,   45501,
   45503,   45506,   45511,   45512,   45514,   45516,   45524,   45525,   45527,   45529,
   45532,   45538,   45539,   45550,   45555,   45558,   45560,   45562,   45574,   45576,
   45590,   45601,   45606,   45616,   45624,   45626,   45632,   45634,   45640,   45648,
   45656,   45657,   45662,   45664,   45666,   45678,   45700,   45704,   45713,   45728,
   45729,   45734,   45744,   45752,   45754,   45760,   45762,   45776,   45784,   45785,
** ... 6 like lines cut
*ELSET, ELSET=TOP_E3
    3817,    3832,    3840,    3844,    3847,    3848,    3850,    3853,    3863,    3871,
    3958,    3972,    3977,    3985,    3988,    4093,    4099,    4105,    4110,    4112,
    4171,    4215,    4221,    4223,    4228,    4236,    4244,    4336,    4338,    4390,
    4436,    4476,    4556,    4596,    4658,    4670,    4680,    4687,    4693,    4697,
    4699,    4702,    4709,    4710,    4714,    4718,    4745,    4752,    4759,    4766,
    4773,    4780,    4783,    4785,    4788,    4790,    4792,    4798,    4847,    4851,
    4853,    4857,    4858,    4863,    4869,    4875,    4879,    4881,    4885,    4886,
    4891,    4892,    4897,    4900,    4904,    4908,    4911,    4915,    4918,    4923,
    4929,    4934,    4939,    4940,    4945,    4948,    4950,    4956,    4958,    4961,
    4963,    4966,    4968,    4995,    4997,    5001,    5004,    5012,    5019,    5026,
    5034,    5037,    5041,    5042,    5044,    5047,    5099,    5103,    5105,    5109,
    5110,    5116,    5121,    5123,    5127,    5128,    5133,    5134,    5139,    5142,
    5145,    5149,    5150,    5161,    5163,    5165,    5168,    5171,    5176,    5182,
    5187,    5193,    5199,    5202,    5204,    5209,    5210,    5212,    5215,    5218,
    5220,    5247,    5249,    5253,    5259,    5265,    5272,    5280,    5287,    5288,
    5291,    5294,    5296,    5298,    5353,    5355,    5357,    5359,    5362,    5364,
    5368,    5370,    5375,    5381,    5385,    5387,    5391,    5392,    5397,    5398,
    5403,    5404,    5412,    5415,    5417,    5424,    5429,    5435,    5440,    5445,
    5446,    5451,    5456,    5461,    5463,    5464,    5466,    5468,    5472,    5537,
    5539,    5541,    5543,    5544,    5546,    5548,    5550,    5554,    5556,    5558,
** ... 4 like lines cut
*SURFACE, NAME=TOP
TOP_E1, E1
TOP_E2, E2
TOP_E3, E3
*ELSET, ELSET=DIE_E1
       9,      12,      17,      21,      36,      42,      44,      63,      70,      71,
      82,      88,     106,     108,     111,     125,     127,     130,     140,     155,
     156,     158,     170,     172,     174,     176,     178,     180,     182,     207,
     211,     213,     215,     217,     219,     223,     225,     235,     238,     242,
     253,     255,     260,     266,     272,     279,     284,     287,     291,     294,
     295,     299,     301,     314,     318,     329,     331,     336,     344,     346,
     352,     355,     356,     359,     360,     370,     372,     375,     377,     383,
     390,     410,     417,     432,     434,     446,     454,     458,     462,    3695,
    3697,    3703,    3777,    3816,    3818,    3820,    3857,    3858,    3877,    3934,
    3935,    3938,    3940,    3943,    3947,    3948,    3951,    3953,    3956,    3960,
    3961,    3964,    3966,    3969,    3998,    4002,    4051,    4054,    4057,    4060,
    4064,    4065,    4068,    4070,    4073,    4077,    4078,    4082,    4083,    4086,
    4090,    4091,    4094,    4127,    4173,    4176,    4179,    4180,    4182,    4186,
    4187,    4190,    4192,    4195,    4199,    4200,    4203,    4207,    4208,    4212,
    4213,    4216,    4220,    4358,    4360,    4362,    4364,    4424,    4602
*ELSET, ELSET=DIE_E2
     311,     387,    3775,    3814,    3831,    3872,    3875,    3882,    3883,    3884,
    3885,    3997,    4000,    4003,    4007,    4008,    4009,    4121,    4123,    4125,
    4128,    4132,    4133,    4134,    4170,    4245,    4247,    4251,    4254,    4255,
    4256,    4257,    4323,    4327,    4403,    4404,    4407,    4409,    4411,    4413,
    4414,    4417,    4419,    4481,    4483,    4484,    4487,    4488,    4491,    4493,
    4495,    4497,    4514,    4558,    4561,    4563,    4565,    4567,    4568,    4571,
    4573,    4575,    4594,    4605,    4607,    4609,    4611,    4612,    4615,    4617,
    4618,    4621,    4623,    4625,    4627,    4629,    4631,    4633,    4635,    4637,
    4639,    4641,    4647,    4649,    4651,    4653,    4656,    4664
*ELSET, ELSET=DIE_E3
       1,       3,       5,       6,      11,      31,      32,      38,      40,      41,
      50,      53,      75,      76,      77,      79,      80,      95,     114,     119,
     150,     154,     160,     162,     164,     166,     168,     184,     186,     187,
     189,     191,     193,     195,     199,     201,     203,     205,     229,     231,
     239,     247,     249,     251,     258,     268,     269,     275,     278,     281,
     289,     305,     307,     324,     326,     327,     334,     342,     347,     353,
     357,     363,     365,     368,     381,     385,     394,     400,     402,     412,
     419,     422,     424,     436,     438,     442,     444,     448,     452,    3890,
    4015,    4139,    4262
*SURFACE, NAME=DIE
DIE_E1, E1
DIE_E2, E2
DIE_E3, E3
*ELSET, ELSET=AAB_SPOS
   58437,   58438,   58439,   58440,   58441,   58442,   58443,   58444,   58445,   58446,
   58447,   58448,   58449,   58450,   58451,   58452,   58453,   58454,   58455,   58456,
   58457,   58458,   58459,   58460,   58461,   58462,   58463,   58464,   58465,   58466,
   58467,   58468,   58469,   58470,   58471,   58472,   58473,   58474,   58475,   58476,
   58477,   58478,   58479,   58480,   58481,   58482,   58483,   58484,   58485,   58486,
   58487,   58488,   58489,   58490,   58491,   58492,   58493,   58494,   58495,   58496,
   58497,   58498,   58499,   58500,   58501,   58502,   58503,   58504,   58505,   58506,
   58507,   58508,   58509,   58510,   58511,   58512,   58513,   58514,   58515,   58516,
   58517,   58518,   58519,   58520,   58521,   58522,   58523,   58524,   58525,   58526,
   58527,   58528,   58529,   58530,   58531,   58532,   58533,   58534,   58535,   58536,
   58537,   58538,   58539,   58540,   58541,   58542,   58543,   58544,   58545,   58546,
   58547,   58548,   58549,   58550,   58551,   58552,   58553,   58554,   58555,   58556,
   58557,   58558,   58559,   58560,   58561,   58562,   58563,   58564,   58565,   58566,
   58567,   58568,   58569,   58570,   58571,   58572,   58573,   58574,   58575,   58576,
   58577,   58578,   58579,   58580,   58581,   58582,   58583,   58584,   58585,   58586,
   58587,   58588,   58589,   58590,   58591,   58592,   58593,   58594,   58595,   58596,
   58597,   58598,   58599,   58600,   58601,   58602,   58603,   58604,   58605,   58606,
   58607,   58608,   58609,   58610,   58611,   58612,   58613,   58614,   58615,   58616,
   58617,   58618,   58619,   58620,   58621,   58622,   58623,   58624,   58625,   58626,
   58627,   58628,   58629,   58630,   58631,   58632,   58633,   58634,   58635,   58636,
** ... 171 like lines cut
*SURFACE, NAME=AAB
AAB_SPOS, SPOS
*ELSET, ELSET=T01_SPOS
       1,       2,       3,       4,       5,       6,       7,       8,       9,      10,
      11,      12,      13,      14,      15,      16,      17,      18,      19,      20,
      21,      22,      23,      24,      25,      26,      27,      28,      29,      30,
      31,      32,      33,      34,      35,      36,      37,      38,      39,      40,
      41,      42,      43,      44,      45,      46,      47,      48,      49,      50,
      51,      52,      53,      54,      55,      56,      57,      58,      59,      60,
      61,      62,      63,      64,      65,      66,      67,      68,      69,      70,
      71,      72,      73,      74,      75,      76,      77,      78,      79,      80,
      81,      82,      83,      84,      85,      86,      87,      88,      89,      90,
      91,      92,      93,      94,      95,      96,      97,      98,      99,     100,
     101,     102,     103,     104,     105,     106,     107,     108,     109,     110,
     111,     112,     113,     114,     115,     116,     117,     118,     119,     120,
     121,     122,     123,     124,     125,     126,     127,     128,     129,     130,
     131,     132,     133,     134,     135,     136,     137,     138,     139,     140,
     141,     142,     143,     144,     145,     146,     147,     148,     149,     150,
     151,     152,     153,     154,     155,     156,     157,     158,     159,     160,
     161,     162,     163,     164,     165,     166,     167,     168,     169,     170,
     171,     172,     173,     174,     175,     176,     177,     178,     179,     180,
     181,     182,     183,     184,     185,     186,     187,     188,     189,     190,
     191,     192,     193,     194,     195,     196,     197,     198,     199,     200,
** ... 350 like lines cut
*SURFACE, NAME=T01
T01_SPOS, SPOS
**
********************************** P R O P E R T I E S ************************
*SHELL SECTION, ELSET=EB1, SECTION INTEGRATION=SIMPSON, MATERIAL=Default-Steel
1.000000e+00
**
*END PART
**
**
**
********************************** E N D   P A R T S **********************************
**
**
********************************** A S S E M B L Y ************************************
**
*ASSEMBLY, NAME=ASSEMBLY1
**
*INSTANCE, NAME=Part-Default_1, PART=Part-Default
*END INSTANCE
**
*END ASSEMBLY
**
**
**
*MATERIAL, NAME = Default-Steel
*ELASTIC, TYPE=ISOTROPIC
2.068000e+05, 2.900000e-01
*DENSITY
7.000000e-06
*CONDUCTIVITY,TYPE=ISO
4.500000e-02
*SPECIFIC HEAT
5.000000e+02
**
**
************************************** H I S T O R Y *************************************
**
*PREPRINT
**
**************************************** S T E P 1 ***************************************
*STEP,INC=100,NAME=Default Set
**
*STATIC
1, 1, 1e-05, 1
**
**
**
**
*END STEP
